src/test/resources/ieeefiles/ieee-cq-2014-03.txt
 22/03    DSF                  100.0  2014 1                          DSF
BUS DATA FOLLOWS                    873 ITEMS
   1 虚拟厂_65 0   0  0 1.0000  .0000   63.539  6.39530  .000000  .00000  220.00 .00000 .000000 .000000  .00000  .00000 0   
   2 虚拟厂_45 0   0  0 1.0000  .0000   .00000  .000000  .000000  .00000  10.000 .00000 .000000 .000000  .00000  .00000 0   
   3 虚拟厂_72 0   0  0 1.0000  .0000   .00000  .000000  .000000  .00000  110.00 .00000 .000000 .000000  .00000  .00000 0   
   4 tf_neutral   0   0  0 1.0000  .0000   .00000  .000000  .000000  .00000  .00000 .00000 .000000 .000000  .00000  .00000 0   
   5 虚拟厂_77 0   0  0 1.0000  .0000   .00000  .000000  .000000  .00000  10.000 .00000 .000000 .000000  .00000  .00000 0   
   6 tf_neutral   0   0  0 1.0000  .0000   .00000  .000000  .000000  .00000  .00000 .00000 .000000 .000000  .00000  .00000 0   
   7 虚拟厂_48 0   0  0 1.0000  .0000   .00000  .000000  .000000  .00000  220.00 .00000 .000000 .000000  .00000  .00000 0   
   8 虚拟厂_60 0   0  0 1.0000  .0000   .00000  .000000  .000000  .00000  500.00 .00000 .000000 .000000  .00000  .00000 0   
   9 虚拟厂_20 0   0  0 1.0000  .0000   .00000  .000000  .000000  .00000  500.00 .00000 .000000 .000000  .00000  -2.400 0   
  10 虚拟厂_18 0   0  0 1.0000  .0000   .00000  .000000  .000000  .00000  35.000 .00000 .000000 .000000  .00000  .00000 0   
  11 虚拟厂_48 0   0  0 1.0000  .0000   90.064  -13.096  .000000  .00000  220.00 .00000 .000000 .000000  .00000  .00000 0   
  12 tf_neutral   0   0  0 1.0000  .0000   .00000  .000000  .000000  .00000  .00000 .00000 .000000 .000000  .00000  .00000 0   
  13 虚拟厂_36 0   0  0 1.0000  .0000   .07100  10.5842  .000000  .00000  220.00 .00000 .000000 .000000  .00000  .00000 0   
  14 虚拟厂_70 0   0  0 1.0000  .0000   .00000  .000000  .000000  .00000  35.000 .00000 .000000 .000000  .00000  .00000 0   
  15 虚拟厂_25 0   0  0 1.0000  .0000   .00000  .000000  .000000  .00000  35.000 .00000 .000000 .000000  .00000  .00000 0   
  16 tf_neutral   0   0  0 1.0000  .0000   .00000  .000000  .000000  .00000  .00000 .00000 .000000 .000000  .00000  .00000 0   
  17 虚拟厂_29 0   0  0 1.0000  .0000   .00000  .000000  .000000  .00000  35.000 .00000 .000000 .000000  .00000  .00000 0   
  18 虚拟厂_43 0   0  0 1.0000  .0000   .00000  .000000  .000000  .00000  35.000 .00000 .000000 .000000  .00000  .00000 0   
  19 tf_neutral   0   0  0 1.0000  .0000   .00000  .000000  .000000  .00000  .00000 .00000 .000000 .000000  .00000  .00000 0   
  20 虚拟厂_18 0   0  0 1.0000  .0000   166.25  38.6792  .000000  .00000  220.00 .00000 .000000 .000000  .00000  .00000 0   
  21 虚拟厂_10 0   0  0 1.0000  .0000   .00000  .000000  .000000  .00000  10.000 .00000 .000000 .000000  .00000  .00000 0   
  22 虚拟厂_68 0   0  0 1.0000  .0000   .00000  .000000  .000000  .00000  110.00 .00000 .000000 .000000  .00000  .00000 0   
  23 tf_neutral   0   0  0 1.0000  .0000   .00000  .000000  .000000  .00000  .00000 .00000 .000000 .000000  .00000  .00000 0   
  24 虚拟厂_40 0   0  0 1.0000  .0000   .00000  .000000  .000000  .00000  10.000 .00000 .000000 .000000  .00000  .00000 0   
  25 tf_neutral   0   0  0 1.0000  .0000   .00000  .000000  .000000  .00000  .00000 .00000 .000000 .000000  .00000  .00000 0   
  26 虚拟厂_78 0   0  0 1.0000  .0000   .00000  .000000  .000000  .00000  35.000 .00000 .000000 .000000  .00000  -1.350 0   
  27 tf_neutral   0   0  0 1.0000  .0000   .00000  .000000  .000000  .00000  .00000 .00000 .000000 .000000  .00000  .00000 0   
  28 虚拟厂_23 0   0  0 1.0000  .0000   .00000  .000000  .000000  .00000  .38000 .00000 .000000 .000000  .00000  .00000 0   
  29 虚拟厂_46 0   0  0 1.0000  .0000   69.839  2.96170  .000000  .00000  220.00 .00000 .000000 .000000  .00000  .00000 0   
  30 虚拟厂_72 0   0  0 1.0000  .0000   .00000  .000000  .000000  .00000  10.000 .00000 .000000 .000000  .00000  .00000 0   
  31 虚拟厂_32 0   0  0 1.0000  .0000   .00000  .000000  .000000  .00000  10.000 .00000 .000000 .000000  .00000  .00000 0   
  32 虚拟厂_15 0   0  0 1.0000  .0000   .00000  .000000  .000000  .00000  110.00 .00000 .000000 .000000  .00000  .00000 0   
  33 tf_neutral   0   0  0 1.0000  .0000   .00000  .000000  .000000  .00000  .00000 .00000 .000000 .000000  .00000  .00000 0   
  34 虚拟厂_10 0   0  0 1.0000  .0000   .00000  .000000  .000000  .00000  10.000 .00000 .000000 .000000  .00000  .00000 0   
  35 tf_neutral   0   0  0 1.0000  .0000   .00000  .000000  .000000  .00000  .00000 .00000 .000000 .000000  .00000  .00000 0   
  36 虚拟厂_12 0   0  0 1.0000  .0000   .00000  .000000  .000000  .00000  10.000 .00000 .000000 .000000  .00000  .00000 0   
  37 虚拟厂_21 0   0  0 1.0000  .0000   40.673  20.9325  .000000  .00000  220.00 .00000 .000000 .000000  .00000  .00000 0   
  38 虚拟厂_54 0   0  0 1.0000  .0000   .00000  .000000  .000000  .00000  220.00 .00000 .000000 .000000  .00000  .00000 0   
  39 虚拟厂_34 0   0  0 1.0000  .0000   18.021  -11.404  .000000  .00000  220.00 .00000 .000000 .000000  .00000  .00000 0   
  40 虚拟厂_55 0   0  0 1.0000  .0000   29.843  -.81790  .000000  .00000  220.00 .00000 .000000 .000000  .00000  .00000 0   
  41 虚拟厂_47 0   0  0 1.0000  .0000   .00000  .000000  .000000  .00000  10.000 .00000 .000000 .000000  .00000  .00000 0   
  42 虚拟厂_60 0   0  0 1.0000  .0000   .00000  .000000  .000000  .00000  110.00 .00000 .000000 .000000  .00000  .00000 0   
  43 tf_neutral   0   0  0 1.0000  .0000   .00000  .000000  .000000  .00000  .00000 .00000 .000000 .000000  .00000  .00000 0   
  44 虚拟厂_56 0   0  0 1.0000  .0000   .00000  .000000  .000000  .00000  110.00 .00000 .000000 .000000  .00000  .00000 0   
  45 虚拟厂_76 0   0  2 1.0000  .0000   .00000  .000000  23.4954  .52394  10.000 .00000 .000000 .000000  .00000  .00000 0   
  46 虚拟厂_14 0   0  0 1.0000  .0000   .00000  .000000  .000000  .00000  10.000 .00000 .000000 .000000  .00000  .00000 0   
  47 tf_neutral   0   0  0 1.0000  .0000   .00000  .000000  .000000  .00000  .00000 .00000 .000000 .000000  .00000  .00000 0   
  48 虚拟厂_65 0   0  0 1.0000  .0000   94.409  1.75190  .000000  .00000  220.00 .00000 .000000 .000000  .00000  .00000 0   
  49 虚拟厂_56 0   0  0 1.0000  .0000   .00000  .000000  .000000  .00000  10.000 .00000 .000000 .000000  .00000  .00000 0   
  50 虚拟厂_43 0   0  0 1.0000  .0000   .00000  .000000  .000000  .00000  10.000 .00000 .000000 .000000  .00000  .00000 0   
  51 虚拟厂_77 0   0  0 1.0000  .0000   .00000  .000000  .000000  .00000  110.00 .00000 .000000 .000000  .00000  .00000 0   
  52 tf_neutral   0   0  0 1.0000  .0000   .00000  .000000  .000000  .00000  .00000 .00000 .000000 .000000  .00000  .00000 0   
  53 虚拟厂_42 0   0  0 1.0000  .0000   .00000  .000000  .000000  .00000  110.00 .00000 .000000 .000000  .00000  .00000 0   
  54 虚拟厂_39 0   0  0 1.0000  .0000   .00000  .000000  .000000  .00000  10.000 .00000 .000000 .000000  .00000  .00000 0   
  55 虚拟厂_12 0   0  0 1.0000  .0000   .00000  .000000  .000000  .00000  10.000 .00000 .000000 .000000  .00000  .00000 0   
  56 虚拟厂_13 0   0  0 1.0000  .0000   .00000  .000000  .000000  .00000  110.00 .00000 .000000 .000000  .00000  .00000 0   
  57 虚拟厂_19 0   0  0 1.0000  .0000   .00000  .000000  .000000  .00000  110.00 .00000 .000000 .000000  .00000  .00000 0   
  58 虚拟厂_15 0   0  0 1.0000  .0000   .00000  .000000  .000000  .00000  110.00 .00000 .000000 .000000  .00000  .00000 0   
  59 虚拟厂_28 0   0  0 1.0000  .0000   .00000  .000000  .000000  .00000  110.00 .00000 .000000 .000000  .00000  .00000 0   
  60 虚拟厂_61 0   0  0 1.0000  .0000   .00000  .000000  .000000  .00000  10.000 .00000 .000000 .000000  .00000  .00000 0   
  61 tf_neutral   0   0  0 1.0000  .0000   .00000  .000000  .000000  .00000  .00000 .00000 .000000 .000000  .00000  .00000 0   
  62 虚拟厂_11 0   0  0 1.0000  .0000   .00000  .000000  .000000  .00000  10.000 .00000 .000000 .000000  .00000  .00000 0   
  63 虚拟厂_24 0   0  0 1.0000  .0000   183.20  21.1902  .000000  .00000  220.00 .00000 .000000 .000000  .00000  .00000 0   
  64 虚拟厂_75 0   0  0 1.0000  .0000   11.095  -3.5448  .000000  .00000  220.00 .00000 .000000 .000000  .00000  .00000 0   
  65 虚拟厂_48 0   0  0 1.0000  .0000   .00000  .000000  .000000  .00000  10.000 .00000 .000000 .000000  .00000  .00000 0   
  66 虚拟厂_64 0   0  0 1.0000  .0000   .00000  .000000  .000000  .00000  110.00 .00000 .000000 .000000  .00000  .00000 0   
  67 tf_neutral   0   0  0 1.0000  .0000   .00000  .000000  .000000  .00000  .00000 .00000 .000000 .000000  .00000  .00000 0   
  68 虚拟厂_51 0   0  0 1.0000  .0000   -77.48  16.9165  .000000  .00000  220.00 .00000 .000000 .000000  .00000  .00000 0   
  69 虚拟厂_36 0   0  0 1.0000  .0000   .00000  .000000  .000000  .00000  10.000 .00000 .000000 .000000  .00000  -.1500 0   
  70 虚拟厂_27 0   0  0 1.0000  .0000   .00000  .000000  .000000  .00000  110.00 .00000 .000000 .000000  .00000  .00000 0   
  71 tf_neutral   0   0  0 1.0000  .0000   .00000  .000000  .000000  .00000  .00000 .00000 .000000 .000000  .00000  .00000 0   
  72 虚拟厂_73 0   0  0 1.0000  .0000   .00000  .000000  .000000  .00000  10.000 .00000 .000000 .000000  .00000  -.1500 0   
  73 tf_neutral   0   0  0 1.0000  .0000   .00000  .000000  .000000  .00000  .00000 .00000 .000000 .000000  .00000  .00000 0   
  74 虚拟厂_16 0   0  0 1.0000  .0000   .00000  .000000  .000000  .00000  110.00 .00000 .000000 .000000  .00000  .00000 0   
  75 虚拟厂_59 0   0  0 1.0000  .0000   .00000  .000000  .000000  .00000  110.00 .00000 .000000 .000000  .00000  .00000 0   
  76 虚拟厂_51 0   0  0 1.0000  .0000   .00000  .000000  .000000  .00000  220.00 .00000 .000000 .000000  .00000  .00000 0   
  77 虚拟厂_78 0   0  0 1.0000  .0000   92.779  19.2836  .000000  .00000  220.00 .00000 .000000 .000000  .00000  .00000 0   
  78 虚拟厂_49 0   0  0 1.0000  .0000   .00000  .000000  .000000  .00000  10.000 .00000 .000000 .000000  .00000  .00000 0   
  79 虚拟厂_26 0   0  0 1.0000  .0000   .00000  .000000  .000000  .00000  110.00 .00000 .000000 .000000  .00000  .00000 0   
  80 tf_neutral   0   0  0 1.0000  .0000   .00000  .000000  .000000  .00000  .00000 .00000 .000000 .000000  .00000  .00000 0   
  81 虚拟厂_31 0   0  0 1.0000  .0000   .00000  .000000  .000000  .00000  110.00 .00000 .000000 .000000  .00000  .00000 0   
  82 虚拟厂_34 0   0  0 1.0000  .0000   .00000  .000000  .000000  .00000  10.000 .00000 .000000 .000000  .00000  .00000 0   
  83 tf_neutral   0   0  0 1.0000  .0000   .00000  .000000  .000000  .00000  .00000 .00000 .000000 .000000  .00000  .00000 0   
  84 虚拟厂_59 0   0  0 1.0000  .0000   107.44  4.42750  .000000  .00000  220.00 .00000 .000000 .000000  .00000  .00000 0   
  85 虚拟厂_11 0   0  0 1.0000  .0000   .00000  .000000  .000000  .00000  10.000 .00000 .000000 .000000  .00000  .00000 0   
  86 虚拟厂_61 0   0  0 1.0000  .0000   .00000  .000000  .000000  .00000  10.000 .00000 .000000 .000000  .00000  .00000 0   
  87 虚拟厂_77 0   0  0 1.0000  .0000   .00000  .000000  .000000  .00000  110.00 .00000 .000000 .000000  .00000  .00000 0   
  88 tf_neutral   0   0  0 1.0000  .0000   .00000  .000000  .000000  .00000  .00000 .00000 .000000 .000000  .00000  .00000 0   
  89 虚拟厂_19 0   0  0 1.0000  .0000   .00000  .000000  .000000  .00000  110.00 .00000 .000000 .000000  .00000  .00000 0   
  90 虚拟厂_61 0   0  0 1.0000  .0000   .00000  .000000  .000000  .00000  10.000 .00000 .000000 .000000  .00000  .00000 0   
  91 虚拟厂_70 0   0  0 1.0000  .0000   .00000  .000000  .000000  .00000  10.000 .00000 .000000 .000000  .00000  .00000 0   
  92 虚拟厂_59 0   0  0 1.0000  .0000   .00000  .000000  .000000  .00000  110.00 .00000 .000000 .000000  .00000  .00000 0   
  93 虚拟厂_30 0   0  0 1.0000  .0000   .00000  .000000  .000000  .00000  10.000 .00000 .000000 .000000  .00000  .00000 0   
  94 tf_neutral   0   0  0 1.0000  .0000   .00000  .000000  .000000  .00000  .00000 .00000 .000000 .000000  .00000  .00000 0   
  95 虚拟厂_14 0   0  0 1.0000  .0000   .00000  .000000  .000000  .00000  10.000 .00000 .000000 .000000  .00000  .09600 0   
  96 虚拟厂_23 0   0  0 1.0000  .0000   .00000  .000000  .000000  .00000  110.00 .00000 .000000 .000000  .00000  .00000 0   
  97 虚拟厂_69 0   0  0 1.0000  .0000   59.390  1.50250  .000000  .00000  220.00 .00000 .000000 .000000  .00000  .00000 0   
  98 虚拟厂_62 0   0  0 1.0000  .0000   .00000  .000000  .000000  .00000  220.00 .00000 .000000 .000000  .00000  .00000 0   
  99 虚拟厂_35 0   0  0 1.0000  .0000   .00000  .000000  .000000  .00000  10.000 .00000 .000000 .000000  .00000  .00000 0   
 100 虚拟厂_37 0   0  0 1.0000  .0000   .00000  .000000  .000000  .00000  110.00 .00000 .000000 .000000  .00000  .00000 0   
 101 tf_neutral   0   0  0 1.0000  .0000   .00000  .000000  .000000  .00000  .00000 .00000 .000000 .000000  .00000  .00000 0   
 102 虚拟厂_41 0   0  0 1.0000  .0000   .00000  .000000  .000000  .00000  110.00 .00000 .000000 .000000  .00000  .00000 0   
 103 虚拟厂_54 0   0  0 1.0000  .0000   .00000  .000000  .000000  .00000  110.00 .00000 .000000 .000000  .00000  .00000 0   
 104 虚拟厂_79 0   0  0 1.0000  .0000   .00000  .000000  .000000  .00000  10.000 .00000 .000000 .000000  .00000  .00000 0   
 105 tf_neutral   0   0  0 1.0000  .0000   .00000  .000000  .000000  .00000  .00000 .00000 .000000 .000000  .00000  .00000 0   
 106 虚拟厂_40 0   0  0 1.0000  .0000   18.505  -4.9774  .000000  .00000  220.00 .00000 .000000 .000000  .00000  .00000 0   
 107 虚拟厂_67 0   0  0 1.0000  .0000   .00000  .000000  .000000  .00000  10.000 .00000 .000000 .000000  .00000  .00000 0   
 108 虚拟厂_42 0   0  0 1.0000  .0000   .00000  .000000  .000000  .00000  110.00 .00000 .000000 .000000  .00000  .00000 0   
 109 tf_neutral   0   0  0 1.0000  .0000   .00000  .000000  .000000  .00000  .00000 .00000 .000000 .000000  .00000  .00000 0   
 110 虚拟厂_34 0   0  0 1.0000  .0000   .00000  .000000  .000000  .00000  220.00 .00000 .000000 .000000  .00000  .00000 0   
 111 虚拟厂_48 0   0  2 1.0000  .0000   .00000  .000000  .000000  .00000  13.800 .00000 75.0000 -75.000  .00000  .00000 0   
 112 虚拟厂_27 0   0  0 1.0000  .0000   .00000  .000000  .000000  .00000  13.800 .00000 .000000 .000000  .00000  .00000 0   
 113 虚拟厂_45 0   0  0 1.0000  .0000   .00000  .000000  .000000  .00000  500.00 .00000 .000000 .000000  .00000  -2.400 0   
 114 虚拟厂_42 0   0  0 1.0000  .0000   .00000  .000000  .000000  .00000  500.00 .00000 .000000 .000000  .00000  .00000 0   
 115 虚拟厂_62 0   0  0 1.0000  .0000   .00000  .000000  .000000  .00000  18.000 .00000 .000000 .000000  .00000  .00000 0   
 116 虚拟厂_79 0   0  0 1.0000  .0000   .00000  .000000  .000000  .00000  18.000 .00000 .000000 .000000  .00000  .00000 0   
 117 虚拟厂_77 0   0  0 1.0000  .0000   .00000  .000000  .000000  .00000  18.000 .00000 .000000 .000000  .00000  .00000 0   
 118 虚拟厂_70 0   0  0 1.0000  .0000   .00000  .000000  .000000  .00000  35.000 .00000 .000000 .000000  .00000  -1.200 0   
 119 tf_neutral   0   0  0 1.0000  .0000   .00000  .000000  .000000  .00000  .00000 .00000 .000000 .000000  .00000  .00000 0   
 120 虚拟厂_76 0   0  0 1.0000  .0000   .00000  .000000  .000000  .00000  35.000 .00000 .000000 .000000  .00000  .00000 0   
 121 tf_neutral   0   0  0 1.0000  .0000   .00000  .000000  .000000  .00000  .00000 .00000 .000000 .000000  .00000  .00000 0   
 122 虚拟厂_33 0   0  0 1.0000  .0000   .00000  .000000  .000000  .00000  .38000 .00000 .000000 .000000  .00000  .00000 0   
 123 虚拟厂_78 0   0  3 1.0000  .0000   .00000  .000000  .000000  .00000  500.00 .00000 3600.00 -3600.0  .00000  .00000 0   
 124 虚拟厂_17 0   0  0 1.0000  .0000   .00000  .000000  .000000  .00000  35.000 .00000 .000000 .000000  .00000  .00000 0   
 125 虚拟厂_63 0   0  0 1.0000  .0000   .00000  .000000  .000000  .00000  220.00 .00000 .000000 .000000  .00000  .00000 0   
 126 tf_neutral   0   0  0 1.0000  .0000   .00000  .000000  .000000  .00000  .00000 .00000 .000000 .000000  .00000  .00000 0   
 127 虚拟厂_19 0   0  0 1.0000  .0000   .00000  .000000  .000000  .00000  35.000 .00000 .000000 .000000  .00000  .00000 0   
 128 虚拟厂_17 0   0  0 1.0000  .0000   .00000  .000000  .000000  .00000  220.00 .00000 .000000 .000000  .00000  .00000 0   
 129 tf_neutral   0   0  0 1.0000  .0000   .00000  .000000  .000000  .00000  .00000 .00000 .000000 .000000  .00000  .00000 0   
 130 虚拟厂_39 0   0  0 1.0000  .0000   .00000  .000000  .000000  .00000  500.00 .00000 .000000 .000000  .00000  -2.700 0   
 131 虚拟厂_55 0   0  0 1.0000  .0000   .00000  .000000  .000000  .00000  500.00 .00000 .000000 .000000  .00000  .00000 0   
 132 虚拟厂_60 0   0  0 1.0000  .0000   .00000  .000000  .000000  .00000  500.00 .00000 .000000 .000000  .00000  .00000 0   
 133 虚拟厂_76 0   0  2 1.0000  .0000   .00000  .000000  478.138  10.662  20.000 .00000 300.000 -400.00  .00000  .00000 0   
 134 虚拟厂_49 0   0  0 1.0000  .0000   .00000  .000000  .000000  .00000  35.000 .00000 .000000 .000000  .00000  -1.200 0   
 135 虚拟厂_38 0   0  0 1.0000  .0000   .00000  .000000  .000000  .00000  220.00 .00000 .000000 .000000  .00000  .00000 0   
 136 tf_neutral   0   0  0 1.0000  .0000   .00000  .000000  .000000  .00000  .00000 .00000 .000000 .000000  .00000  .00000 0   
 137 虚拟厂_53 0   0  0 1.0000  .0000   36.658  -2.6888  .000000  .00000  220.00 .00000 .000000 .000000  .00000  .00000 0   
 138 虚拟厂_54 0   0  0 1.0000  .0000   80.395  -7.6746  .000000  .00000  220.00 .00000 .000000 .000000  .00000  .00000 0   
 139 虚拟厂_53 0   0  0 1.0000  .0000   120.12  6.06150  .000000  .00000  220.00 .00000 .000000 .000000  .00000  .00000 0   
 140 虚拟厂_55 0   0  0 1.0000  .0000   .00000  .000000  .000000  .00000  10.000 .00000 .000000 .000000  .00000  .00000 0   
 141 虚拟厂_36 0   0  0 1.0000  .0000   .00000  .000000  .000000  .00000  110.00 .00000 .000000 .000000  .00000  .00000 0   
 142 tf_neutral   0   0  0 1.0000  .0000   .00000  .000000  .000000  .00000  .00000 .00000 .000000 .000000  .00000  .00000 0   
 143 虚拟厂_68 0   0  0 1.0000  .0000   .00000  .000000  .000000  .00000  10.000 .00000 .000000 .000000  .00000  .00000 0   
 144 tf_neutral   0   0  0 1.0000  .0000   .00000  .000000  .000000  .00000  .00000 .00000 .000000 .000000  .00000  .00000 0   
 145 虚拟厂_56 0   0  0 1.0000  .0000   .00000  .000000  .000000  .00000  10.000 .00000 .000000 .000000  .00000  .07500 0   
 146 虚拟厂_34 0   0  0 1.0000  .0000   .00000  .000000  .000000  .00000  10.000 .00000 .000000 .000000  .00000  .16000 0   
 147 虚拟厂_36 0   0  0 1.0000  .0000   .00000  .000000  .000000  .00000  110.00 .00000 .000000 .000000  .00000  .00000 0   
 148 tf_neutral   0   0  0 1.0000  .0000   .00000  .000000  .000000  .00000  .00000 .00000 .000000 .000000  .00000  .00000 0   
 149 虚拟厂_62 0   0  0 1.0000  .0000   .00000  .000000  .000000  .00000  10.000 .00000 .000000 .000000  .00000  .00000 0   
 150 tf_neutral   0   0  0 1.0000  .0000   .00000  .000000  .000000  .00000  .00000 .00000 .000000 .000000  .00000  .00000 0   
 151 虚拟厂_63 0   0  0 1.0000  .0000   .00000  .000000  .000000  .00000  10.000 .00000 .000000 .000000  .00000  .08000 0   
 152 虚拟厂_63 0   0  0 1.0000  .0000   .00000  .000000  .000000  .00000  10.000 .00000 .000000 .000000  .00000  .00000 0   
 153 tf_neutral   0   0  0 1.0000  .0000   .00000  .000000  .000000  .00000  .00000 .00000 .000000 .000000  .00000  .00000 0   
 154 虚拟厂_13 0   0  0 1.0000  .0000   .00000  .000000  .000000  .00000  10.000 .00000 .000000 .000000  .00000  .00000 0   
 155 虚拟厂_66 0   0  0 1.0000  .0000   .00000  .000000  .000000  .00000  110.00 .00000 .000000 .000000  .00000  .00000 0   
 156 虚拟厂_74 0   0  0 1.0000  .0000   .00000  .000000  .000000  .00000  110.00 .00000 .000000 .000000  .00000  .00000 0   
 157 虚拟厂_32 0   0  0 1.0000  .0000   .00000  .000000  .000000  .00000  110.00 .00000 .000000 .000000  .00000  .00000 0   
 158 虚拟厂_31 0   0  0 1.0000  .0000   66.093  2.30600  .000000  .00000  220.00 .00000 .000000 .000000  .00000  .00000 0   
 159 虚拟厂_32 0   0  0 1.0000  .0000   .00000  .000000  .000000  .00000  10.000 .00000 .000000 .000000  .00000  .00000 0   
 160 虚拟厂_47 0   0  0 1.0000  .0000   .00000  .000000  .000000  .00000  10.000 .00000 .000000 .000000  .00000  .00000 0   
 161 虚拟厂_36 0   0  0 1.0000  .0000   .00000  .000000  .000000  .00000  110.00 .00000 .000000 .000000  .00000  .00000 0   
 162 tf_neutral   0   0  0 1.0000  .0000   .00000  .000000  .000000  .00000  .00000 .00000 .000000 .000000  .00000  .00000 0   
 163 虚拟厂_54 0   0  0 1.0000  .0000   .00000  .000000  .000000  .00000  110.00 .00000 .000000 .000000  .00000  .00000 0   
 164 虚拟厂_49 0   0  0 1.0000  .0000   .00000  .000000  .000000  .00000  110.00 .00000 .000000 .000000  .00000  .00000 0   
 165 虚拟厂_30 0   0  0 1.0000  .0000   .00000  .000000  .000000  .00000  110.00 .00000 .000000 .000000  .00000  .00000 0   
 166 虚拟厂_28 0   0  0 1.0000  .0000   .00000  .000000  .000000  .00000  110.00 .00000 .000000 .000000  .00000  .00000 0   
 167 虚拟厂_67 0   0  0 1.0000  .0000   .00000  .000000  .000000  .00000  110.00 .00000 .000000 .000000  .00000  .00000 0   
 168 虚拟厂_11 0   0  0 1.0000  .0000   .00000  .000000  .000000  .00000  110.00 .00000 .000000 .000000  .00000  .00000 0   
 169 虚拟厂_27 0   0  0 1.0000  .0000   .00000  .000000  .000000  .00000  110.00 .00000 .000000 .000000  .00000  .00000 0   
 170 虚拟厂_54 0   0  0 1.0000  .0000   .00000  .000000  .000000  .00000  110.00 .00000 .000000 .000000  .00000  .00000 0   
 171 虚拟厂_63 0   0  0 1.0000  .0000   .00000  .000000  .000000  .00000  110.00 .00000 .000000 .000000  .00000  .00000 0   
 172 虚拟厂_49 0   0  0 1.0000  .0000   .00000  .000000  .000000  .00000  10.000 .00000 .000000 .000000  .00000  .00000 0   
 173 虚拟厂_24 0   0  0 1.0000  .0000   .00000  .000000  .000000  .00000  35.000 .00000 .000000 .000000  .00000  .00000 0   
 174 tf_neutral   0   0  0 1.0000  .0000   .00000  .000000  .000000  .00000  .00000 .00000 .000000 .000000  .00000  .00000 0   
 175 虚拟厂_43 0   0  0 1.0000  .0000   .00000  .000000  .000000  .00000  110.00 .00000 .000000 .000000  .00000  .00000 0   
 176 tf_neutral   0   0  0 1.0000  .0000   .00000  .000000  .000000  .00000  .00000 .00000 .000000 .000000  .00000  .00000 0   
 177 虚拟厂_57 0   0  0 1.0000  .0000   .00000  .000000  .000000  .00000  110.00 .00000 .000000 .000000  .00000  .00000 0   
 178 虚拟厂_32 0   0  0 1.0000  .0000   .00000  .000000  .000000  .00000  110.00 .00000 .000000 .000000  .00000  .00000 0   
 179 虚拟厂_22 0   0  0 1.0000  .0000   .00000  .000000  .000000  .00000  110.00 .00000 .000000 .000000  .00000  .00000 0   
 180 虚拟厂_64 0   0  0 1.0000  .0000   .00000  .000000  .000000  .00000  110.00 .00000 .000000 .000000  .00000  .00000 0   
 181 虚拟厂_39 0   0  0 1.0000  .0000   .00000  .000000  .000000  .00000  110.00 .00000 .000000 .000000  .00000  .00000 0   
 182 虚拟厂_73 0   0  0 1.0000  .0000   .00000  .000000  .000000  .00000  110.00 .00000 .000000 .000000  .00000  .00000 0   
 183 虚拟厂_16 0   0  0 1.0000  .0000   .00000  .000000  .000000  .00000  110.00 .00000 .000000 .000000  .00000  .00000 0   
 184 虚拟厂_47 0   0  0 1.0000  .0000   66.673  -9.4101  .000000  .00000  220.00 .00000 .000000 .000000  .00000  .00000 0   
 185 虚拟厂_26 0   0  0 1.0000  .0000   21.500  4.54830  .000000  .00000  220.00 .00000 .000000 .000000  .00000  .00000 0   
 186 虚拟厂_52 0   0  0 1.0000  .0000   .00000  .000000  .000000  .00000  220.00 .00000 .000000 .000000  .00000  .00000 0   
 187 虚拟厂_31 0   0  0 1.0000  .0000   25.467  .347100  .000000  .00000  220.00 .00000 .000000 .000000  .00000  .00000 0   
 188 虚拟厂_26 0   0  0 1.0000  .0000   .00000  .000000  .000000  .00000  10.000 .00000 .000000 .000000  .00000  .00000 0   
 189 虚拟厂_35 0   0  0 1.0000  .0000   .00000  .000000  .000000  .00000  10.000 .00000 .000000 .000000  .00000  .09000 0   
 190 虚拟厂_65 0   0  0 1.0000  .0000   .00000  .000000  .000000  .00000  110.00 .00000 .000000 .000000  .00000  .00000 0   
 191 tf_neutral   0   0  0 1.0000  .0000   .00000  .000000  .000000  .00000  .00000 .00000 .000000 .000000  .00000  .00000 0   
 192 虚拟厂_70 0   0  0 1.0000  .0000   .00000  .000000  .000000  .00000  110.00 .00000 .000000 .000000  .00000  .00000 0   
 193 虚拟厂_75 0   0  0 1.0000  .0000   .00000  .000000  .000000  .00000  110.00 .00000 .000000 .000000  .00000  .00000 0   
 194 虚拟厂_47 0   0  0 1.0000  .0000   .00000  .000000  .000000  .00000  110.00 .00000 .000000 .000000  .00000  .00000 0   
 195 虚拟厂_44 0   0  0 1.0000  .0000   .00000  .000000  .000000  .00000  110.00 .00000 .000000 .000000  .00000  .00000 0   
 196 虚拟厂_41 0   0  0 1.0000  .0000   .00000  .000000  .000000  .00000  110.00 .00000 .000000 .000000  .00000  .00000 0   
 197 虚拟厂_66 0   0  0 1.0000  .0000   58.382  .000000  .000000  .00000  220.00 .00000 .000000 .000000  .00000  .00000 0   
 198 虚拟厂_42 0   0  0 1.0000  .0000   .00000  .000000  .000000  .00000  10.000 .00000 .000000 .000000  .00000  .00000 0   
 199 tf_neutral   0   0  0 1.0000  .0000   .00000  .000000  .000000  .00000  .00000 .00000 .000000 .000000  .00000  .00000 0   
 200 虚拟厂_16 0   0  0 1.0000  .0000   .00000  .000000  .000000  .00000  10.000 .00000 .000000 .000000  .00000  .06000 0   
...
-999
BRANCH DATA FOLLOWS                    1097 ITEMS
   1    4 0 0   1 1  .0005989  .0637917   .000000  0     0     0    0    0  1.0000  .000   .00000 .000000 .00000 .00000 .000000
   1    7 0 0   1 0  .0010173  .0068107   .022543  0     0     0    0    0  .00000  .000   .00000 .000000 .00000 .00000 .000000
   1  738 0 0   1 0  .0006843  .0043663   .014421  0     0     0    0    0  .00000  .000   .00000 .000000 .00000 .00000 .000000
   1    6 0 0   1 1  .0005956  .0637500   .000000  0     0     0    0    0  1.0000  .000   .00000 .000000 .00000 .00000 .000000
   1    7 0 0   2 0  .0009167  .0067547   .022049  0     0     0    0    0  .00000  .000   .00000 .000000 .00000 .00000 .000000
   1  738 0 0   2 0  .0006721  .0043433   .014534  0     0     0    0    0  .00000  .000   .00000 .000000 .00000 .00000 .000000
   2    4 0 0   1 1  .4035000  19.01720   .000000  0     0     0    0    0  1.0500  .000   .00000 .000000 .00000 .00000 .000000
   3    6 0 0   1 1  .0015603  -.021333   .000000  0     0     0    0    0  1.0454  .000   .00000 .000000 .00000 .00000 .000000
   3    4 0 0   1 1  .0015396  -.021333   .000000  0     0     0    0    0  1.0454  .000   .00000 .000000 .00000 .00000 .000000
   5    6 0 0   1 1  .4051000  18.97680   .000000  0     0     0    0    0  1.0500  .000   .00000 .000000 .00000 .00000 .000000
   7  836 0 0   1 1  .0004857  -.012983   .000000  0     0     0    0    0  1.0454  .000   .00000 .000000 .00000 .00000 .000000
   7  843 0 0   1 0  .0007314  .0097987   .050903  0     0     0    0    0  .00000  .000   .00000 .000000 .00000 .00000 .000000
   7  842 0 0   1 1  .0006006  -.015755   .000000  0     0     0    0    0  1.0454  .000   .00000 .000000 .00000 .00000 .000000
   7  849 0 0   1 0  .0071487  .0380055   .061897  0     0     0    0    0  .00000  .000   .00000 .000000 .00000 .00000 .000000
   7  839 0 0   1 1  .0004721  -.013591   .000000  0     0     0    0    0  1.0454  .000   .00000 .000000 .00000 .00000 .000000
   7  850 0 0   1 0  .0006192  .0069603   .035156  0     0     0    0    0  .00000  .000   .00000 .000000 .00000 .00000 .000000
   7  851 0 0   2 0  .0018675  .0104650   .018857  0     0     0    0    0  .00000  .000   .00000 .000000 .00000 .00000 .000000
   7  860 0 0   1 0  .0072533  .0389869   .062231  0     0     0    0    0  .00000  .000   .00000 .000000 .00000 .00000 .000000
   7  158 0 0   4 0  .0016673  .0082644   .012883  0     0     0    0    0  .00000  .000   .00000 .000000 .00000 .00000 .000000
   7  158 0 0   2 0  .0011942  .0084710   .012884  0     0     0    0    0  .00000  .000   .00000 .000000 .00000 .00000 .000000
   7  158 0 0   3 0  .0038078  .0128099   .016714  0     0     0    0    0  .00000  .000   .00000 .000000 .00000 .00000 .000000
   7  851 0 0   1 0  .0010495  .0104650   .018857  0     0     0    0    0  .00000  .000   .00000 .000000 .00000 .00000 .000000
   7  861 0 0   1 0  .0006758  .0069960   .037398  0     0     0    0    0  .00000  .000   .00000 .000000 .00000 .00000 .000000
   7  862 0 0   2 0  .0007024  .0090909   .032095  0     0     0    0    0  .00000  .000   .00000 .000000 .00000 .00000 .000000
   7  862 0 0   1 0  .0008677  .0090909   .032008  0     0     0    0    0  .00000  .000   .00000 .000000 .00000 .00000 .000000
   7  158 0 0   1 0  .0038078  .0128099   .016840  0     0     0    0    0  .00000  .000   .00000 .000000 .00000 .00000 .000000
   7  843 0 0   2 0  .0012721  .0098605   .049994  0     0     0    0    0  .00000  .000   .00000 .000000 .00000 .00000 .000000
   8    9 0 0   2 0  .0005049  .0058631   .564146  0     0     0    0    0  .00000  .000   .00000 .000000 .00000 .00000 .000000
   8  131 0 0   2 0  .0002750  .0032502   .341296  0     0     0    0    0  .00000  .000   .00000 .000000 .00000 .00000 .000000
   8  131 0 0   1 0  .0001952  .0032418   .341296  0     0     0    0    0  .00000  .000   .00000 .000000 .00000 .00000 .000000
   8  836 0 0   1 1  .0001076  .0236817   .000000  0     0     0    0    0  1.0500  .000   .00000 .000000 .00000 .00000 .000000
   8    9 0 0   1 0  .0007595  .0056862   .546058  0     0     0    0    0  .00000  .000   .00000 .000000 .00000 .00000 .000000
   8  839 0 0   1 1  .0001105  .0239022   .000000  0     0     0    0    0  1.0500  .000   .00000 .000000 .00000 .00000 .000000
   8  842 0 0   1 1  .0000822  .0246739   .000000  0     0     0    0    0  1.0500  .000   .00000 .000000 .00000 .00000 .000000
   9   12 0 0   1 1  .0000404  .0140348   .000000  0     0     0    0    0  1.0500  .000   .00000 .000000 .00000 .00000 .000000
   9   27 0 0   1 1  .0001003  .0198156   .000000  0     0     0    0    0  1.0500  .000   .00000 .000000 .00000 .00000 .000000
   9  113 0 0   2 0  .0012424  .0164526   1.68721  0     0     0    0    0  .00000  .000   .00000 .000000 .00000 .00000 .000000
   9  113 0 0   1 0  .0012368  .0164673   1.67595  0     0     0    0    0  .00000  .000   .00000 .000000 .00000 .00000 .000000
   9  829 0 0   1 0  .0015721  .0189012   1.79339  0     0     0    0    0  .00000  .000   .00000 .000000 .00000 .00000 .000000
   9  833 0 0   1 0  .0017068  .0189401   1.74935  0     0     0    0    0  .00000  .000   .00000 .000000 .00000 .00000 .000000
   9  367 0 0   1 0  .0005236  .0060587   .603055  0     0     0    0    0  .00000  .000   .00000 .000000 .00000 .00000 .000000
   9  834 0 0   1 0  .0004657  .0059141   .727369  0     0     0    0    0  .00000  .000   .00000 .000000 .00000 .00000 .000000
  10   12 0 0   1 1  .0946530  6.842252   .000000  0     0     0    0    0  1.0285  .000   .00000 .000000 .00000 .00000 .000000
  11   13 0 0   1 0  .0028033  .0143407   .048002  0     0     0    0    0  .00000  .000   .00000 .000000 .00000 .00000 .000000
  11   12 0 0   1 1  .0004708  -.005865   .000000  0     0     0    0    0  1.0454  .000   .00000 .000000 .00000 .00000 .000000
  11   20 0 0   1 0  .0015671  .0123219   .036477  0     0     0    0    0  .00000  .000   .00000 .000000 .00000 .00000 .000000
  11   27 0 0   1 1  .0005097  -.012528   .000000  0     0     0    0    0  1.0454  .000   .00000 .000000 .00000 .00000 .000000
  11   29 0 0   2 0  .0046634  .0255652   .076469  0     0     0    0    0  .00000  .000   .00000 .000000 .00000 .00000 .000000
  11   48 0 0   1 0  .0088326  .0323347   .072647  0     0     0    0    0  .00000  .000   .00000 .000000 .00000 .00000 .000000
  11   29 0 0   1 0  .0037190  .0255686   .076479  0     0     0    0    0  .00000  .000   .00000 .000000 .00000 .00000 .000000
  11   48 0 0   2 0  .0088262  .0309070   .072647  0     0     0    0    0  .00000  .000   .00000 .000000 .00000 .00000 .000000
  11  800 0 0   2 0  .0026090  .0179752   .020986  0     0     0    0    0  .00000  .000   .00000 .000000 .00000 .00000 .000000
  11  814 0 0   2 0  .0002307  .0030971   .015849  0     0     0    0    0  .00000  .000   .00000 .000000 .00000 .00000 .000000
  11   13 0 0   2 0  .0029016  .0154743   .046519  0     0     0    0    0  .00000  .000   .00000 .000000 .00000 .00000 .000000
  11  800 0 0   1 0  .0053599  .0182867   .019055  0     0     0    0    0  .00000  .000   .00000 .000000 .00000 .00000 .000000
  11  814 0 0   1 0  .0002088  .0026405   .015922  0     0     0    0    0  .00000  .000   .00000 .000000 .00000 .00000 .000000
  11   20 0 0   2 0  .0016543  .0122727   .036477  0     0     0    0    0  .00000  .000   .00000 .000000 .00000 .00000 .000000
  13   16 0 0   1 1  .0035322  .1630355   .000000  0     0     0    0    0  1.0454  .000   .00000 .000000 .00000 .00000 .000000
  13   19 0 0   1 1  .0035413  .1626710   .000000  0     0     0    0    0  1.0454  .000   .00000 .000000 .00000 .00000 .000000
  14   16 0 0   1 1  .0272653  4.181616   .000000  0     0     0    0    0  1.1000  .000   .00000 .000000 .00000 .00000 .000000
  15   16 0 0   1 1  .0590367  -.141551   .000000  0     0     0    0    0  1.1000  .000   .00000 .000000 .00000 .00000 .000000
  17   19 0 0   1 1  .0267918  4.200808   .000000  0     0     0    0    0  1.1000  .000   .00000 .000000 .00000 .00000 .000000
  18   19 0 0   1 1  .0588653  -.141542   .000000  0     0     0    0    0  1.1000  .000   .00000 .000000 .00000 .00000 .000000
  20   23 0 0   1 1  .0010528  .0801667   .000000  0     0     0    0    0  1.0000  .000   .00000 .000000 .00000 .00000 .000000
  20   25 0 0   1 1  .0010783  .0803055   .000000  0     0     0    0    0  1.0000  .000   .00000 .000000 .00000 .00000 .000000
  21   23 0 0   1 1  .5999000  24.38820   .000000  0     0     0    0    0  1.0500  .000   .00000 .000000 .00000 .00000 .000000
  22   23 0 0   1 1  .0018363  -.027333   .000000  0     0     0    0    0  1.0454  .000   .00000 .000000 .00000 .00000 .000000
  22   25 0 0   1 1  .0017272  -.030110   .000000  0     0     0    0    0  1.0454  .000   .00000 .000000 .00000 .00000 .000000
  24   25 0 0   1 1  .5911000  24.15970   .000000  0     0     0    0    0  1.0500  .000   .00000 .000000 .00000 .00000 .000000
  26   27 0 0   1 1  .1271673  9.404995   .000000  0     0     0    0    0  1.0285  .000   .00000 .000000 .00000 .00000 .000000
  28   26 0 0   1 1  .5554838  .6926024   .000000  0     0     0    0    0  1.0000  .000   1.0000 1.00000 .00000 .00000 .000000
  29   33 0 0   1 1  .0017107  .1212500   .000000  0     0     0    0    0  1.0000  .000   .00000 .000000 .00000 .00000 .000000
  29   37 0 0   1 0  .0055834  .0461774   .138575  0     0     0    0    0  .00000  .000   .00000 .000000 .00000 .00000 .000000
  29   35 0 0   1 1  .0017235  .1175417   .000000  0     0     0    0    0  1.0000  .000   .00000 .000000 .00000 .00000 .000000
  29   37 0 0   2 0  .0057345  .0458758   .138575  0     0     0    0    0  .00000  .000   .00000 .000000 .00000 .00000 .000000
  30   31 0 0   1 0  .0500000  .1000000   .000000  0     0     0    0    0  .00000  .000   .00000 .000000 .00000 .00000 .000000
  30   33 0 0   1 1  .9480000  36.46130   .000000  0     0     0    0    0  1.0500  .000   .00000 .000000 .00000 .00000 .000000
  32   33 0 0   1 1  .0041099  -.038666   .000000  0     0     0    0    0  1.1000  .000   .00000 .000000 .00000 .00000 .000000
  32   35 0 0   1 1  .0036041  -.036833   .000000  0     0     0    0    0  1.1000  .000   .00000 .000000 .00000 .00000 .000000
  34   36 0 0   1 0  .0500000  .1000000   .000000  0     0     0    0    0  .00000  .000   .00000 .000000 .00000 .00000 .000000
  34   35 0 0   1 1  .5995000  35.15050   .000000  0     0     0    0    0  1.0500  .000   .00000 .000000 .00000 .00000 .000000
  37   38 0 0   1 0  .0016528  .0103305   .000000  0     0     0    0    0  .00000  .000   .00000 .000000 .00000 .00000 .000000
  37   39 0 0   2 0  .0035716  .0279795   .083291  0     0     0    0    0  .00000  .000   .00000 .000000 .00000 .00000 .000000
  37  797 0 0   1 1  .0013320  .0870433   .000000  0     0     0    0    0  1.0454  .000   .00000 .000000 .00000 .00000 .000000
  37   39 0 0   1 0  .0036539  .0279979   .083291  0     0     0    0    0  .00000  .000   .00000 .000000 .00000 .00000 .000000
  37  799 0 0   1 1  .0013014  .0869522   .000000  0     0     0    0    0  1.0454  .000   .00000 .000000 .00000 .00000 .000000
  37   38 0 0   2 0  .0016528  .0103305   .000000  0     0     0    0    0  .00000  .000   .00000 .000000 .00000 .00000 .000000
  39   40 0 0   2 0  .0033343  .0239989   .070932  0     0     0    0    0  .00000  .000   .00000 .000000 .00000 .00000 .000000
  39  791 0 0   1 1  .0011214  .0871345   .000000  0     0     0    0    0  1.0454  .000   .00000 .000000 .00000 .00000 .000000
  39   40 0 0   1 0  .0032799  .0240611   .070932  0     0     0    0    0  .00000  .000   .00000 .000000 .00000 .00000 .000000
  39  794 0 0   1 1  .0011433  .0873165   .000000  0     0     0    0    0  1.0454  .000   .00000 .000000 .00000 .00000 .000000
  40   43 0 0   1 1  .0012783  .0898971   .000000  0     0     0    0    0  1.0454  .000   .00000 .000000 .00000 .00000 .000000
  40   48 0 0   1 0  .0057152  .0434031   .111667  0     0     0    0    0  .00000  .000   .00000 .000000 .00000 .00000 .000000
  40   48 0 0   2 0  .0058367  .0436458   .111846  0     0     0    0    0  .00000  .000   .00000 .000000 .00000 .00000 .000000
  40   47 0 0   1 1  .0012962  .0903223   .000000  0     0     0    0    0  1.0454  .000   .00000 .000000 .00000 .00000 .000000
  41   43 0 0   1 1  .6422000  26.67040   .000000  0     0     0    0    0  1.0500  .000   .00000 .000000 .00000 .00000 .000000
  42   44 0 0   1 0  .0066115  .0413223   .000000  0     0     0    0    0  .00000  .000   .00000 .000000 .00000 .00000 .000000
  42   43 0 0   1 1  .0022537  -.025623   .000000  0     0     0    0    0  1.0454  .000   .00000 .000000 .00000 .00000 .000000
  42   47 0 0   1 1  .0022256  -.026352   .000000  0     0     0    0    0  1.0454  .000   .00000 .000000 .00000 .00000 .000000
  45   44 0 0   1 1  .0009760  .0012200   .000000  0     0     0    0    0  .90909  .000   .90909 .909090 .00000 .00000 .000000
  46   47 0 0   1 1  .6271000  26.72920   .000000  0     0     0    0    0  1.0500  .000   .00000 .000000 .00000 .00000 .000000
  48   52 0 0   1 1  .0009708  .0829723   .000000  0     0     0    0    0  1.0000  .000   .00000 .000000 .00000 .00000 .000000
  48   61 0 0   1 1  .0009671  .0828055   .000000  0     0     0    0    0  1.0000  .000   .00000 .000000 .00000 .00000 .000000
  48   63 0 0   1 0  .0039150  .0210661   .000116  0     0     0    0    0  .00000  .000   .00000 .000000 .00000 .00000 .000000
  48   63 0 0   2 0  .0039099  .0211762   .000116  0     0     0    0    0  .00000  .000   .00000 .000000 .00000 .00000 .000000
  49   50 0 0   1 0  .0500000  .1000000   .000000  0     0     0    0    0  .00000  .000   .00000 .000000 .00000 .00000 .000000
  49   52 0 0   1 1  .6640000  23.40680   .000000  0     0     0    0    0  1.0500  .000   .00000 .000000 .00000 .00000 .000000
  51   53 0 0   1 0  .0066115  .0413223   .000000  0     0     0    0    0  .00000  .000   .00000 .000000 .00000 .00000 .000000
  51   56 0 0   2 0  .0066115  .0413223   .000000  0     0     0    0    0  .00000  .000   .00000 .000000 .00000 .00000 .000000
  51   59 0 0   1 0  .0066115  .0413223   .000000  0     0     0    0    0  .00000  .000   .00000 .000000 .00000 .00000 .000000
  51   52 0 0   1 1  .0021000  -.022333   .000000  0     0     0    0    0  1.1000  .000   .00000 .000000 .00000 .00000 .000000
  51   56 0 0   1 0  .0066115  .0413223   .000000  0     0     0    0    0  .00000  .000   .00000 .000000 .00000 .00000 .000000
  51   61 0 0   1 1  .0020710  -.021889   .000000  0     0     0    0    0  1.1000  .000   .00000 .000000 .00000 .00000 .000000
  54   53 0 0   1 1  .0008066  .0010082   .000000  0     0     0    0    0  1.0000  .000   1.0000 1.00000 .00000 .00000 .000000
  55   53 0 0   1 1  .0008066  .0010082   .000000  0     0     0    0    0  1.0000  .000   1.0000 1.00000 .00000 .00000 .000000
  56   57 0 0   1 0  .0066115  .0413223   .000000  0     0     0    0    0  .00000  .000   .00000 .000000 .00000 .00000 .000000
  56   58 0 0   1 0  .0066115  .0413223   .000000  0     0     0    0    0  .00000  .000   .00000 .000000 .00000 .00000 .000000
  60   62 0 0   1 0  .0500000  .1000000   .000000  0     0     0    0    0  .00000  .000   .00000 .000000 .00000 .00000 .000000
  60   61 0 0   1 1  .6500000  23.40680   .000000  0     0     0    0    0  1.0500  .000   .00000 .000000 .00000 .00000 .000000
  63   64 0 0   1 0  .0051454  .0306502   .000202  0     0     0    0    0  .00000  .000   .00000 .000000 .00000 .00000 .000000
  63  786 0 0   1 1  .0010843  .0841667   .000000  0     0     0    0    0  1.0000  .000   .00000 .000000 .00000 .00000 .000000
  63   64 0 0   2 0  .0050960  .0305677   .000202  0     0     0    0    0  .00000  .000   .00000 .000000 .00000 .00000 .000000
  63  788 0 0   1 1  .0010843  .0841667   .000000  0     0     0    0    0  1.0000  .000   .00000 .000000 .00000 .00000 .000000
  64   67 0 0   1 1  .0010080  .0811944   .000000  0     0     0    0    0  1.0000  .000   .00000 .000000 .00000 .00000 .000000
  64   68 0 0   2 0  .0108161  .0570351   .088736  0     0     0    0    0  .00000  .000   .00000 .000000 .00000 .00000 .000000
  64   68 0 0   1 0  .0108037  .0570268   .088940  0     0     0    0    0  .00000  .000   .00000 .000000 .00000 .00000 .000000
  65   67 0 0   1 1  .6482000  25.07390   .000000  0     0     0    0    0  1.0500  .000   .00000 .000000 .00000 .00000 .000000
  66   67 0 0   1 1  .0019008  -.028777   .000000  0     0     0    0    0  1.0454  .000   .00000 .000000 .00000 .00000 .000000
  68   71 0 0   1 1  .0026913  .1605000   .000000  0     0     0    0    0  1.0000  .000   .00000 .000000 .00000 .00000 .000000
  68   73 0 0   1 1  .0015809  .1608332   .000000  0     0     0    0    0  1.0000  .000   .00000 .000000 .00000 .00000 .000000
  68   76 0 0   1 0  .0048076  .0292865   .042736  0     0     0    0    0  .00000  .000   .00000 .000000 .00000 .00000 .000000
  68   76 0 0   2 0  .0049365  .0298142   .043898  0     0     0    0    0  .00000  .000   .00000 .000000 .00000 .00000 .000000
  69   71 0 0   1 1  1.367200  47.99670   .000000  0     0     0    0    0  1.0500  .000   .00000 .000000 .00000 .00000 .000000
  70   73 0 0   1 1  .0110371  -.041110   .000000  0     0     0    0    0  1.1000  .000   .00000 .000000 .00000 .00000 .000000
  70   74 0 0   1 0  .0066115  .0413223   .000000  0     0     0    0    0  .00000  .000   .00000 .000000 .00000 .00000 .000000
  70   71 0 0   1 1  .0047603  -.067333   .000000  0     0     0    0    0  1.1000  .000   .00000 .000000 .00000 .00000 .000000
  72   73 0 0   1 1  1.325200  45.30780   .000000  0     0     0    0    0  1.0500  .000   .00000 .000000 .00000 .00000 .000000
  74   75 0 0   1 0  .0066115  .0413223   .000000  0     0     0    0    0  .00000  .000   .00000 .000000 .00000 .00000 .000000
  76   77 0 0   1 0  .0100152  .0867997   .260736  0     0     0    0    0  .00000  .000   .00000 .000000 .00000 .00000 .000000
  76   77 0 0   2 0  .0100152  .0867997   .262887  0     0     0    0    0  .00000  .000   .00000 .000000 .00000 .00000 .000000
  76  106 0 0   1 0  .0033260  .0197892   .029772  0     0     0    0    0  .00000  .000   .00000 .000000 .00000 .00000 .000000
  76  110 0 0   2 0  .0013072  .0142285   .042719  0     0     0    0    0  .00000  .000   .00000 .000000 .00000 .00000 .000000
  76  121 0 0   1 1  .0005148  -.012490   .000000  0     0     0    0    0  1.0454  .000   .00000 .000000 .00000 .00000 .000000
  76  106 0 0   2 0  .0017855  .0130208   .040649  0     0     0    0    0  .00000  .000   .00000 .000000 .00000 .00000 .000000
  76  110 0 0   1 0  .0014510  .0142469   .043051  0     0     0    0    0  .00000  .000   .00000 .000000 .00000 .00000 .000000
  76   98 0 0   1 0  .0032861  .0192655   .029604  0     0     0    0    0  .00000  .000   .00000 .000000 .00000 .00000 .000000
  76   98 0 0   2 0  .0016876  .0129657   .040962  0     0     0    0    0  .00000  .000   .00000 .000000 .00000 .00000 .000000
  76  119 0 0   1 1  .0005121  -.013287   .000000  0     0     0    0    0  1.0454  .000   .00000 .000000 .00000 .00000 .000000
  77   80 0 0   1 1  .0030293  .1756652   .000000  0     0     0    0    0  1.0454  .000   .00000 .000000 .00000 .00000 .000000
  77   84 0 0   2 0  .0063394  .0353095   .049559  0     0     0    0    0  .00000  .000   .00000 .000000 .00000 .00000 .000000
  77   83 0 0   1 1  .0031161  .1811303   .000000  0     0     0    0    0  1.0454  .000   .00000 .000000 .00000 .00000 .000000
  77   84 0 0   1 0  .0084084  .0358276   .050528  0     0     0    0    0  .00000  .000   .00000 .000000 .00000 .00000 .000000
  78   80 0 0   1 1  1.440600  49.99050   .000000  0     0     0    0    0  1.0500  .000   .00000 .000000 .00000 .00000 .000000
  79   81 0 0   2 0  .0066115  .0413223   .000000  0     0     0    0    0  .00000  .000   .00000 .000000 .00000 .00000 .000000
  79   83 0 0   1 1  .0056545  -.041533   .000000  0     0     0    0    0  1.1000  .000   .00000 .000000 .00000 .00000 .000000
  79   81 0 0   1 0  .0066115  .0413223   .000000  0     0     0    0    0  .00000  .000   .00000 .000000 .00000 .00000 .000000
  79   80 0 0   1 1  .0070694  -.045904   .000000  0     0     0    0    0  1.1000  .000   .00000 .000000 .00000 .00000 .000000
  82   83 0 0   1 1  1.237900  51.63630   .000000  0     0     0    0    0  1.0500  .000   .00000 .000000 .00000 .00000 .000000
  84   88 0 0   1 1  .0047688  .1317035   .000000  0     0     0    0    0  1.0454  .000   .00000 .000000 .00000 .00000 .000000
  84   94 0 0   1 1  .0010834  .0933582   .000000  0     0     0    0    0  1.0454  .000   .00000 .000000 .00000 .00000 .000000
  84   97 0 0   1 0  .0124391  .0718324   .120253  0     0     0    0    0  .00000  .000   .00000 .000000 .00000 .00000 .000000
  84   97 0 0   2 0  .0124394  .0718330   .120253  0     0     0    0    0  .00000  .000   .00000 .000000 .00000 .00000 .000000
  85   86 0 0   1 0  .0500000  .1000000   .000000  0     0     0    0    0  .00000  .000   .00000 .000000 .00000 .00000 .000000
  85   88 0 0   1 1  3.402100  38.08800   .000000  0     0     0    0    0  1.0500  .000   .00000 .000000 .00000 .00000 .000000
  87   88 0 0   1 1  -.014964  -.042261   .000000  0     0     0    0    0  1.1000  .000   .00000 .000000 .00000 .00000 .000000
  87   89 0 0   1 0  .0066115  .0413223   .000000  0     0     0    0    0  .00000  .000   .00000 .000000 .00000 .00000 .000000
  87   89 0 0   2 0  .0066115  .0413223   .000000  0     0     0    0    0  .00000  .000   .00000 .000000 .00000 .00000 .000000
  87   92 0 0   1 0  .0066115  .0413223   .000000  0     0     0    0    0  .00000  .000   .00000 .000000 .00000 .00000 .000000
  87   94 0 0   1 1  .0020677  -.025866   .000000  0     0     0    0    0  1.1000  .000   .00000 .000000 .00000 .00000 .000000
  87   96 0 0   1 0  .0066115  .0413223   .000000  0     0     0    0    0  .00000  .000   .00000 .000000 .00000 .00000 .000000
  90   89 0 0   1 1  .0009599  .0011999   .000000  0     0     0    0    0  .96250  .000   .96250 .962500 .00000 .00000 .000000
  91   89 0 0   1 1  .0009599  .0011999   .000000  0     0     0    0    0  .96250  .000   .96250 .962500 .00000 .00000 .000000
  93   95 0 0   1 0  .0500000  .1000000   .000000  0     0     0    0    0  .00000  .000   .00000 .000000 .00000 .00000 .000000
  93   94 0 0   1 1  2.115100  114.0436   .000000  0     0     0    0    0  1.0500  .000   .00000 .000000 .00000 .00000 .000000
  97   98 0 0   1 0  .0128099  .0560130   .079612  0     0     0    0    0  .00000  .000   .00000 .000000 .00000 .00000 .000000
  97  101 0 0   1 1  .0029679  .1790049   .000000  0     0     0    0    0  1.0454  .000   .00000 .000000 .00000 .00000 .000000
  97  105 0 0   1 1  .0030787  .1822233   .000000  0     0     0    0    0  1.0454  .000   .00000 .000000 .00000 .00000 .000000
  97  106 0 0   1 0  .0128099  .0555991   .084688  0     0     0    0    0  .00000  .000   .00000 .000000 .00000 .00000 .000000
  99  101 0 0   1 1  1.405000  50.19620   .000000  0     0     0    0    0  1.0500  .000   .00000 .000000 .00000 .00000 .000000
 100  102 0 0   1 0  .0066115  .0413223   .000000  0     0     0    0    0  .00000  .000   .00000 .000000 .00000 .00000 .000000
 100  101 0 0   1 1  .0071801  -.045176   .000000  0     0     0    0    0  1.1000  .000   .00000 .000000 .00000 .00000 .000000
 100  103 0 0   1 0  .0066115  .0413223   .000000  0     0     0    0    0  .00000  .000   .00000 .000000 .00000 .00000 .000000
 100  102 0 0   2 0  .0066115  .0413223   .000000  0     0     0    0    0  .00000  .000   .00000 .000000 .00000 .00000 .000000
 100  105 0 0   1 1  .0059686  -.041533   .000000  0     0     0    0    0  1.1000  .000   .00000 .000000 .00000 .00000 .000000
 104  105 0 0   1 1  1.257700  51.98890   .000000  0     0     0    0    0  1.0500  .000   .00000 .000000 .00000 .00000 .000000
 106  109 0 0   1 1  .0031041  .1818588   .000000  0     0     0    0    0  1.0454  .000   .00000 .000000 .00000 .00000 .000000
 107  109 0 0   1 1  1.276500  52.81180   .000000  0     0     0    0    0  1.0500  .000   .00000 .000000 .00000 .00000 .000000
 108  109 0 0   1 1  .0059851  -.038618   .000000  0     0     0    0    0  1.1000  .000   .00000 .000000 .00000 .00000 .000000
 111  110 0 0   1 1  .0014583  .0639791   .000000  0     0     0    0    0  1.3175  .000   1.3175 1.31752 .00000 .00000 .000000
 112  110 0 0   1 1  .0014608  .0639791   .000000  0     0     0    0    0  1.3175  .000   1.3175 1.31752 .00000 .00000 .000000
 113  114 0 0   1 0  .0002306  .0018576   .185912  0     0     0    0    0  .00000  .000   .00000 .000000 .00000 .00000 .000000
 113  119 0 0   1 1  .0000911  .0205065   .000000  0     0     0    0    0  1.0500  .000   .00000 .000000 .00000 .00000 .000000
 113  121 0 0   1 1  .0000966  .0208666   .000000  0     0     0    0    0  1.0500  .000   .00000 .000000 .00000 .00000 .000000
 113  123 0 0   1 0  .0010252  .0165839   1.68055  0     0     0    0    0  .00000  .000   .00000 .000000 .00000 .00000 .000000
 113  123 0 0   2 0  .0010545  .0165710   1.67925  0     0     0    0    0  .00000  .000   .00000 .000000 .00000 .00000 .000000
 113  114 0 0   2 0  .0002526  .0019104   .183892  0     0     0    0    0  .00000  .000   .00000 .000000 .00000 .00000 .000000
 113  130 0 0   2 0  .0010150  .0154620   1.62315  0     0     0    0    0  .00000  .000   .00000 .000000 .00000 .00000 .000000
 113  130 0 0   1 0  .0008368  .0155085   1.54101  0     0     0    0    0  .00000  .000   .00000 .000000 .00000 .00000 .000000
 115  114 0 0   1 1  .0008335  .0555231   .000000  0     0     0    0    0  .90909  .000   .90909 .909090 .00000 .00000 .000000
 116  114 0 0   1 1  .0008335  .0555231   .000000  0     0     0    0    0  .90909  .000   .90909 .909090 .00000 .00000 .000000
...
-999
LOSS ZONES FOLLOWS   0 ITEMS
-99
INTERCHANGE DATA FOLLOWS      0 ITEMS
-9
TIE LINES FOLLOWS             0ITEMS
-999
END OF DATA